sol/case39.m
function mpc = case39
%CASE39

%% MATPOWER Case Format : Version 2
mpc.version = '2';

%%-----  Power Flow Data  -----%%
%% system MVA base
mpc.baseMVA = 100;

%% bus data
%	bus_i	type	Pd	Qd	Gs	Bs	area	Vm	Va	baseKV	zone	Vmax	Vmin	lam_P	lam_Q	mu_Vmax	mu_Vmin
mpc.bus = [
	1	1	97.6	44.2	0	0	2	1.04116895	-13.3766791	345	1	1.06	0.94	14.0297	-0.0128	0.0000	0.0000;
	2	1	0	0	0	0	2	1.05440981	-5.43405171	345	1	1.06	0.94	13.7188	-0.0577	0.0000	0.0000;
	3	1	322	2.4	0	0	2	1.04552465	-8.97742129	345	1	1.06	0.94	13.8347	-0.0155	0.0000	0.0000;
	4	1	500	184	0	0	1	1.03534689	-10.3931659	345	1	1.06	0.94	13.8763	0.0319	0.0000	0.0000;
	5	1	0	0	0	0	1	1.04390612	-9.69307544	345	1	1.06	0.94	13.8574	0.0305	0.0000	0.0000;
	6	1	0	0	0	0	1	1.04794727	-9.00577534	345	1	1.06	0.94	13.8313	0.0255	0.0000	0.0000;
	7	1	233.8	84	0	0	1	1.03568591	-11.4218075	345	1	1.06	0.94	13.9144	0.0441	0.0000	0.0000;
	8	1	522	176.6	0	0	1	1.03378218	-12.0812176	345	1	1.06	0.94	13.9448	0.0459	0.0000	0.0000;
	9	1	6.5	-66.6	0	0	1	1.05650802	-15.0794949	345	1	1.06	0.94	14.0474	-0.0089	0.0000	0.0000;
	10	1	0	0	0	0	1	1.05979955	-6.56975607	345	1	1.06	0.94	13.7244	0.0049	2.9481	0.0000;
	11	1	0	0	0	0	1	1.05453319	-7.39578023	345	1	1.06	0.94	13.7626	0.0155	0.0000	0.0000;
	12	1	8.53	88	0	0	1	1.04206332	-7.34870026	345	1	1.06	0.94	13.7595	0.0338	0.0000	0.0000;
	13	1	0	0	0	0	1	1.05425512	-7.18080128	345	1	1.06	0.94	13.7528	0.0142	0.0000	0.0000;
	14	1	0	0	0	0	1	1.0448191	-8.60610855	345	1	1.06	0.94	13.8152	0.0256	0.0000	0.0000;
	15	1	320	153	0	0	3	1.03586919	-8.70350596	345	1	1.06	0.94	13.8101	0.0408	0.0000	0.0000;
	16	1	329	32.3	0	0	3	1.04638348	-7.21186625	345	1	1.06	0.94	13.7332	0.0171	0.0000	0.0000;
	17	1	0	0	0	0	2	1.04740976	-8.32267995	345	1	1.06	0.94	13.7693	-0.0057	0.0000	0.0000;
	18	1	158	30	0	0	2	1.04545377	-8.98925717	345	1	1.06	0.94	13.8114	-0.0080	0.0000	0.0000;
	19	1	0	0	0	0	3	1.05999989	-2.47363427	345	1	1.06	0.94	13.5448	0.0103	149.2606	0.0000;
	20	1	680	103	0	0	3	0.996816215	-3.85253327	345	1	1.06	0.94	13.5794	0.0226	0.0000	0.0000;
	21	1	274	115	0	0	3	1.04406715	-4.72966078	345	1	1.06	0.94	13.6589	0.0288	0.0000	0.0000;
	22	1	0	0	0	0	3	1.05962783	-0.233813383	345	1	1.06	0.94	13.5299	0.0090	0.1619	0.0000;
	23	1	247.5	84.6	0	0	3	1.05223989	-0.386652969	345	1	1.06	0.94	13.5333	0.0202	0.0000	0.0000;
	24	1	308.6	-92.2	0	0	3	1.05080258	-7.05276378	345	1	1.06	0.94	13.7301	0.0127	0.0000	0.0000;
	25	1	224	47.2	0	0	2	1.05999995	-4.54355188	345	1	1.06	0.94	13.4478	-0.0091	335.1566	0.0000;
	26	1	139	17	0	0	2	1.05999996	-7.56769718	345	1	1.06	0.94	13.6509	-0.0792	481.2147	0.0000;
	27	1	281	75.5	0	0	2	1.04869569	-9.05102978	345	1	1.06	0.94	13.7531	-0.0360	0.0000	0.0000;
	28	1	206	27.6	0	0	3	1.0553777	-6.19906065	345	1	1.06	0.94	13.5991	-0.0394	0.0000	0.0000;
	29	1	283.5	26.9	0	0	3	1.05318161	-4.13470876	345	1	1.06	0.94	13.5127	-0.0196	0.0000	0.0000;
	30	2	0	0	0	0	2	1.04632939	1.05047115	345	1	1.06	0.94	13.7318	-0.0565	0.0000	0.0000;
	31	3	9.2	4.6	0	0	1	1.03843334	0	345	1	1.06	0.94	13.8236	0.0233	0.0000	0.0000;
	32	2	0	0	0	0	1	1.03972325	0.919841088	345	1	1.06	0.94	13.7232	0.0046	0.0000	0.0000;
	33	2	0	0	0	0	3	1.00721568	2.80390588	345	1	1.06	0.94	13.4206	-0.0000	0.0000	0.0000;
	34	2	0	0	0	0	3	1.01322101	1.31652041	345	1	1.06	0.94	13.4539	0.0000	0.0000	0.0000;
	35	2	0	0	0	0	3	1.05999977	4.7179989	345	1	1.06	0.94	13.5291	0.0000	65.0832	0.0000;
	36	2	0	0	0	0	3	1.05999982	7.72887116	345	1	1.06	0.94	13.4593	-0.0000	89.5949	0.0000;
	37	2	0	0	0	0	2	1.03160877	2.49869152	345	1	1.06	0.94	13.3635	-0.0000	0.0000	0.0000;
	38	2	0	0	0	0	3	1.02273754	1.45135676	345	1	1.06	0.94	13.3807	-0.0000	0.0000	0.0000;
	39	2	1104	250	0	0	1	1.03795707	-16.9453403	345	1	1.06	0.94	14.0918	-0.0000	0.0000	0.0000;
];

%% generator data
%	bus	Pg	Qg	Qmax	Qmin	Vg	mBase	status	Pmax	Pmin	Pc1	Pc2	Qc1min	Qc1max	Qc2min	Qc2max	ramp_agc	ramp_10	ramp_30	ramp_q	apf	mu_Pmax	mu_Pmin	mu_Qmax	mu_Qmin
mpc.gen = [
	30	671.588553	140.000339	400	140	1.04632939	100	1	1040	0	0	0	0	0	0	0	0	0	0	0	0	0.0000	0.0000	0.0000	0.0565;
	31	645.999966	299.999911	300	-100	1.03843334	100	1	646	0	0	0	0	0	0	0	0	0	0	0	0	0.6036	0.0000	0.0233	0.0000;
	32	671.159956	299.99402	300	150	1.03972325	100	1	725	0	0	0	0	0	0	0	0	0	0	0	0	0.0000	0.0000	0.0046	0.0000;
	33	651.999663	115.119277	250	0	1.00721568	100	1	652	0	0	0	0	0	0	0	0	0	0	0	0	0.0806	0.0000	0.0000	0.0000;
	34	507.999993	139.607563	167	0	1.01322101	100	1	508	0	0	0	0	0	0	0	0	0	0	0	0	2.9939	0.0000	0.0000	0.0000;
	35	661.454504	222.933228	300	-100	1.05999977	100	1	687	0	0	0	0	0	0	0	0	0	0	0	0	0.0000	0.0000	0.0000	0.0000;
	36	579.999987	60.6452188	240	0	1.05999982	100	1	580	0	0	0	0	0	0	0	0	0	0	0	0	1.5593	0.0000	0.0000	0.0000;
	37	563.999989	8.82080081	250	0	1.03160877	100	1	564	0	0	0	0	0	0	0	0	0	0	0	0	1.7835	0.0000	0.0000	0.0000;
	38	654.034812	-32.7354549	300	-150	1.02273754	100	1	865	0	0	0	0	0	0	0	0	0	0	0	0	0.0000	0.0000	0.0000	0.0000;
	39	689.58902	81.8864845	300	-100	1.03795707	100	1	1100	0	0	0	0	0	0	0	0	0	0	0	0	0.0000	0.0000	0.0000	0.0000;
];

%% branch data
%	fbus	tbus	r	x	b	rateA	rateB	rateC	ratio	angle	status	angmin	angmax	Pf	Qf	Pt	Qt	mu_Sf	mu_St	mu_angmin	mu_angmax
mpc.branch = [
	1	2	0.0035	0.0411	0.6987	600	600	600	0	0	1	-360	360	-367.1074	-14.5270	371.4762	-10.8812	0.0000	0.0000	0.0000	0.0000;
	1	39	0.001	0.025	0.75	1000	1000	1000	0	0	1	-360	360	269.5074	-29.6729	-268.8362	-34.6004	0.0000	0.0000	0.0000	0.0000;
	2	3	0.0013	0.0151	0.2572	500	500	500	0	0	1	-360	360	454.3904	22.5834	-451.9602	-22.7112	0.0000	0.0000	0.0000	0.0000;
	2	25	0.007	0.0086	0.146	500	500	500	0	0	1	-360	360	-154.2781	50.4905	155.9929	-64.7019	0.0000	0.0000	0.0000	0.0000;
	2	30	0	0.0181	0	900	900	2500	1.025	0	1	-360	360	-671.5886	-62.1927	671.5886	140.0003	0.0000	0.0000	0.0000	0.0000;
	3	4	0.0013	0.0213	0.2214	500	500	500	0	0	1	-360	360	128.2282	31.5825	-128.0100	-51.9741	0.0000	0.0000	0.0000	0.0000;
	3	18	0.0011	0.0133	0.2138	500	500	500	0	0	1	-360	360	1.7320	-11.2713	-1.7319	-12.0976	0.0000	0.0000	0.0000	0.0000;
	4	5	0.0008	0.0128	0.1342	600	600	600	0	0	1	-360	360	-107.0406	-69.1049	107.1547	56.4259	0.0000	0.0000	0.0000	0.0000;
	4	14	0.0008	0.0129	0.1382	500	500	500	0	0	1	-360	360	-264.9494	-62.9210	265.4963	56.7893	0.0000	0.0000	0.0000	0.0000;
	5	6	0.0002	0.0026	0.0434	1200	1200	1200	0	0	1	-360	360	-513.9161	-122.0590	514.4271	123.9543	0.0000	0.0000	0.0000	0.0000;
	5	8	0.0008	0.0112	0.1476	900	900	900	0	0	1	-360	360	406.7613	65.6331	-405.5068	-63.9996	0.0000	0.0000	0.0000	0.0000;
	6	7	0.0006	0.0092	0.113	900	900	900	0	0	1	-360	360	504.9592	111.0159	-503.4911	-100.7690	0.0000	0.0000	0.0000	0.0000;
	6	11	0.0007	0.0082	0.1389	480	480	480	0	0	1	-360	360	-382.5864	-53.8138	383.5330	49.5524	0.0000	0.0000	0.0000	0.0000;
	6	31	0	0.025	0	1800	1800	1800	1.07	0	1	-360	360	-636.7999	-181.1564	636.7999	295.3999	0.0000	0.0000	0.0000	0.0000;
	7	8	0.0004	0.0046	0.078	900	900	900	0	0	1	-360	360	269.6911	16.7690	-269.4182	-21.9823	0.0000	0.0000	0.0000	0.0000;
	8	9	0.0023	0.0363	0.3804	900	900	900	0	0	1	-360	360	152.9251	-90.6181	-152.3154	58.6826	0.0000	0.0000	0.0000	0.0000;
	9	39	0.001	0.025	1.2	900	900	900	0	0	1	-360	360	145.8154	7.9174	-145.5747	-133.5130	0.0000	0.0000	0.0000	0.0000;
	10	11	0.0004	0.0043	0.0729	600	600	600	0	0	1	-360	360	383.6939	92.7119	-383.1362	-94.8642	0.0000	0.0000	0.0000	0.0000;
	10	13	0.0004	0.0043	0.0729	600	600	600	0	0	1	-360	360	287.4660	107.2933	-287.1276	-111.7998	0.0000	0.0000	0.0000	0.0000;
	10	32	0	0.02	0	900	900	2500	1.07	0	1	-360	360	-671.1599	-200.0051	671.1599	299.9940	0.0000	0.0000	0.0000	0.0000;
	12	11	0.0016	0.0435	0	500	500	500	1.006	0	1	-360	360	0.4263	-44.5086	-0.3967	45.3118	0.0000	0.0000	0.0000	0.0000;
	12	13	0.0016	0.0435	0	500	500	500	1.006	0	1	-360	360	-8.9563	-43.4914	8.9857	44.2908	0.0000	0.0000	0.0000	0.0000;
	13	14	0.0009	0.0101	0.1723	600	600	600	0	0	1	-360	360	278.1419	67.5090	-277.4673	-78.9187	0.0000	0.0000	0.0000	0.0000;
	14	15	0.0018	0.0217	0.366	600	600	600	0	0	1	-360	360	11.9710	22.1294	-11.9395	-61.3620	0.0000	0.0000	0.0000	0.0000;
	15	16	0.0009	0.0094	0.171	600	600	600	0	0	1	-360	360	-308.0605	-91.6380	308.9136	82.0114	0.0000	0.0000	0.0000	0.0000;
	16	17	0.0007	0.0089	0.1342	600	600	600	0	0	1	-360	360	236.5010	-35.7000	-236.1383	25.6036	0.0000	0.0000	0.0000	0.0000;
	16	19	0.0016	0.0195	0.304	600	600	2500	0	0	1	-360	360	-471.0802	-31.6177	474.3264	37.4585	0.0000	0.0000	0.0000	0.0000;
	16	21	0.0008	0.0135	0.2548	600	600	600	0	0	1	-360	360	-347.7462	32.2048	348.6453	-44.8691	0.0000	0.0000	0.0000	0.0000;
	16	24	0.0003	0.0059	0.068	600	600	600	0	0	1	-360	360	-55.5882	-79.1986	55.6122	72.1951	0.0000	0.0000	0.0000	0.0000;
	17	18	0.0007	0.0082	0.1319	600	600	600	0	0	1	-360	360	156.4252	5.2997	-156.2681	-17.9024	0.0000	0.0000	0.0000	0.0000;
	17	27	0.0013	0.0173	0.3216	600	600	600	0	0	1	-360	360	79.7131	-30.9033	-79.6357	-3.3920	0.0000	0.0000	0.0000	0.0000;
	19	20	0.0007	0.0138	0	900	900	2500	1.06	0	1	-360	360	174.6486	16.3029	-174.4332	-12.0569	0.0000	0.0000	0.0000	0.0000;
	19	33	0.0007	0.0142	0	900	900	2500	1.07	0	1	-360	360	-648.9750	-53.7614	651.9997	115.1193	0.0000	0.0000	0.0000	0.0000;
	20	34	0.0009	0.018	0	900	900	2500	1.009	0	1	-360	360	-505.5668	-90.9431	508.0000	139.6076	0.0000	0.0000	0.0000	0.0000;
	21	22	0.0008	0.014	0.2565	900	900	900	0	0	1	-360	360	-622.6453	-70.1309	625.5136	91.9468	0.0000	0.0000	0.0000	0.0000;
	22	23	0.0006	0.0096	0.1846	600	600	600	0	0	1	-360	360	35.9409	68.9780	-35.9003	-88.9124	0.0000	0.0000	0.0000	0.0000;
	22	35	0	0.0143	0	900	900	2500	1.025	0	1	-360	360	-661.4545	-160.9248	661.4545	222.9332	0.0000	0.0000	0.0000	0.0000;
	23	24	0.0022	0.035	0.361	600	600	600	0	0	1	-360	360	366.8870	-17.3681	-364.2122	20.0049	0.0000	0.0000	0.0000	0.0000;
	23	36	0.0005	0.0272	0	900	900	2500	1	0	1	-360	360	-578.4866	21.6805	580.0000	60.6452	0.0000	0.0000	0.0000	0.0000;
	25	26	0.0032	0.0323	0.531	600	600	600	0	0	1	-360	360	182.2132	-43.0393	-181.2627	-7.0292	0.0000	0.0000	0.0000	0.0000;
	25	37	0.0006	0.0232	0	900	900	2500	1.025	0	1	-360	360	-562.2061	60.5413	564.0000	8.8209	0.0000	0.0000	0.0000	0.0000;
	26	27	0.0014	0.0147	0.2396	600	600	600	0	0	1	-360	360	201.9247	51.3562	-201.3643	-72.1080	0.0000	0.0000	0.0000	0.0000;
	26	28	0.0043	0.0474	0.7802	600	600	600	0	0	1	-360	360	-54.9207	-27.8394	55.0459	-58.0621	0.0000	0.0000	0.0000	0.0000;
	26	29	0.0057	0.0625	1.029	600	600	600	0	0	1	-360	360	-104.7413	-33.4876	105.3278	-74.9580	0.0000	0.0000	0.0000	0.0000;
	28	29	0.0014	0.0151	0.249	600	600	600	0	0	1	-360	360	-261.0459	30.4621	261.9272	-48.6339	0.0000	0.0000	0.0000	0.0000;
	29	38	0.0008	0.0156	0	1200	1200	2500	1.025	0	1	-360	360	-650.7550	96.6919	654.0348	-32.7355	0.0000	0.0000	0.0000	0.0000;
];

%%-----  OPF Data  -----%%
%% generator cost data
%	1	startup	shutdown	n	x1	y1	...	xn	yn
%	2	startup	shutdown	n	c(n-1)	...	c0
mpc.gencost = [
	2	0	0	3	0.01	0.3	0.2;
	2	0	0	3	0.01	0.3	0.2;
	2	0	0	3	0.01	0.3	0.2;
	2	0	0	3	0.01	0.3	0.2;
	2	0	0	3	0.01	0.3	0.2;
	2	0	0	3	0.01	0.3	0.2;
	2	0	0	3	0.01	0.3	0.2;
	2	0	0	3	0.01	0.3	0.2;
	2	0	0	3	0.01	0.3	0.2;
	2	0	0	3	0.01	0.3	0.2;
];
